22
Lattice="6.80698 0.0 0.0 -1.7526638918778912 6.577472615108896 0.0 -1.7526638918778912 -2.2808424534017084 6.169351968016407" Properties=species:S:1:pos:R:3 config_type=buildcell buildcell_config_i=80 RSS_min_vol_per_atom=6.0 buildcell_type=narrow_even gap_rss_group=ALL gap_rss_iter=1 buildcell_symmetry="146 R3 R 3 @ 0.01" _ConfigSet_loc=" / 0" pbc="T T T"
Cu       2.37241145      -0.06259653       5.02595080
Cu      -0.67133543       3.92475477       3.87789178
Cu       3.96528158       3.51179921       1.68411525
Cu       1.58326015       4.99297267       3.59577040
Cu       4.41696878       2.39635022       3.88766588
Cu       1.17827087       1.95247228       5.93005761
Cu      -1.12302831       2.01754527       2.00588768
Cu       2.23867852       2.07758620       0.16498760
Cu       1.43112149      -0.78087080       2.58793334
Cu       4.34982398       5.21079451       3.20916857
Cu       3.91511049       1.08728426       6.31362288
Cu       0.04256068       4.51294306       6.00030370
Cu       1.43769247       5.06177556       1.30142418
Cu       4.52093270       0.28699702       2.97674934
Cu      -0.88673104       1.25157533       5.19899064
Cu       1.00302097       2.89130383       1.92595077
Cu       2.53556101       1.21221139       2.27518112
Cu       0.51848264       1.17617662       3.37975732
Cu      -2.21334221       4.45072011       5.50135366
Cu       4.87054974       5.50425360       0.97653624
Cu       4.06459849      -1.20750046       6.08224195
Cu       2.62633260       3.41779786       4.90747333
6
Lattice="2.74318 0.0 0.0 -0.2254438785468424 4.371650844844058 0.0 -0.0488067855164659 -2.14371921790682 5.947801691622252" Properties=species:S:1:pos:R:3 config_type=buildcell buildcell_config_i=81 RSS_min_vol_per_atom=6.0 buildcell_type=narrow_even gap_rss_group=ALL gap_rss_iter=1 buildcell_symmetry="2 P-1 -P 1 @ 0.01" _ConfigSet_loc=" / 1" pbc="T T T"
Cu       1.93026785      -0.79865088       5.51039262
Cu       0.53866149       3.02658251       0.43740907
Cu       0.67300722       1.25795434       1.96071067
Cu       1.79592211       0.96997728       3.98709102
Cu       1.81905253       3.79695272       2.18607109
Cu       0.64987680      -1.56902109       3.76173060
22
Lattice="6.71668 0.0 0.0 2.4107273334739343 6.269145392000544 0.0 2.4107273334739343 1.6558042828429045 6.046527608715663" Properties=species:S:1:pos:R:3 config_type=buildcell buildcell_config_i=82 RSS_min_vol_per_atom=6.0 buildcell_type=narrow_even gap_rss_group=ALL gap_rss_iter=1 buildcell_symmetry="146 R3 R 3 @ 0.01" _ConfigSet_loc=" / 2" pbc="T T T"
Cu       3.25495588       5.14846909       2.58524186
Cu       5.97368229       2.80779664       0.46512914
Cu       4.76476541       1.65508154       4.28283351
Cu       7.29390905       2.83662645       5.30598640
Cu       5.26552546       6.64677059       4.18279008
Cu       8.09377808       4.70222959       1.33448255
Cu       4.40000548       1.48517366       1.49656335
Cu       2.96545065       2.38732524       3.05160146
Cu       3.29260617       3.44797444       1.03716330
Cu       6.37590904       2.77531990       3.08318852
Cu       4.87881843       4.28240959       3.96469001
Cu       5.74815970       4.62067685       1.86243753
Cu       8.20855669       4.06834957       3.59250689
Cu       6.74346060       5.10285341       5.03235563
Cu       7.18318793       6.03232796       2.97503065
Cu       1.27713655       2.40969533       1.48992487
Cu       2.70752193       1.52342720      -0.07797481
Cu       2.39369505       0.44783958       1.93060850
Cu       9.75704644       7.08759413       3.80320963
Cu      10.11731043       5.40159470       5.32551910
Cu       8.67295439       7.11848708       5.83141090
Cu       0.67500511       0.46362620       0.35373456
24
Lattice="6.13702 0.0 0.0 -3.0685099999999985 5.314815223533175 0.0 0.0 0.0 8.54891" Properties=species:S:1:pos:R:3 config_type=buildcell buildcell_config_i=83 RSS_min_vol_per_atom=6.0 buildcell_type=narrow_even gap_rss_group=ALL gap_rss_iter=1 buildcell_symmetry="172 P6_4 P 64 @ 0.01" _ConfigSet_loc=" / 3" pbc="T T T"
Cu      -0.74794778       4.14306695       6.15023033
Cu      -0.14551734       2.59553997       0.45095671
Cu       0.89346511       3.89102353       3.30059395
Cu       3.81645778       1.17174828       6.15023033
Cu       3.21402734       2.71927525       0.45095671
Cu       2.17504489       1.42379170       3.30059395
Cu      -0.40333784       2.44885426       4.53682789
Cu       1.14940892       3.74108727       7.38646512
Cu      -0.74607108       4.43968891       1.68719151
Cu       3.47184784       2.86596096       4.53682789
Cu       1.91910108       1.57372795       7.38646512
Cu       3.81458108       0.87512631       1.68719151
Cu       3.30947579       3.83753682       2.45848015
Cu       1.15887773       0.94732170       5.30811653
Cu       4.73717648       0.52995670       8.15775291
Cu      -0.24096579       1.47727840       2.45848015
Cu       1.90963227       4.36749352       5.30811653
Cu      -1.66866648       4.78485852       8.15775291
Cu       4.28450559       0.76308576       3.93583011
Cu       3.33391556       3.32894780       6.78546649
Cu       1.58710886       1.22278166       1.08619373
Cu      -1.21599559       4.55172947       3.93583011
Cu      -0.26540556       1.98586742       6.78546649
Cu       1.48140114       4.09203356       1.08619373
20
Lattice="4.36921 0.0 0.0 -2.184604999999999 3.783846854469007 0.0 0.0 0.0 14.42815" Properties=species:S:1:pos:R:3 config_type=buildcell buildcell_config_i=84 RSS_min_vol_per_atom=6.0 buildcell_type=narrow_even gap_rss_group=ALL gap_rss_iter=1 buildcell_symmetry="143 P3 P 3 @ 0.01" _ConfigSet_loc=" / 4" pbc="T T T"
Cu      -0.88467851       0.99025391       4.54139872
Cu      -0.88468070       4.05487397       4.54139872
Cu       1.76935921       2.52256583       4.54139872
Cu       0.87157700       3.58562247      11.23948268
Cu       0.48484665       1.23622780      11.23948268
Cu      -1.35642365       2.74584344      11.23948268
Cu       2.70924619       2.53303271      13.81437361
Cu       3.02365214       0.17105447      13.81437361
Cu       0.82091601       1.07976005      13.81437361
Cu       0.88329588       0.99162253       7.48329129
Cu      -1.76748264       2.52307892       7.48329129
Cu       0.88418676       4.05299226       7.48329129
Cu      -0.67578593       1.14308613       1.36018066
Cu      -0.85677040       3.79755157       1.36018066
Cu       1.53255633       2.62705601       1.36018066
Cu       3.52624805       1.49607969       9.37817919
Cu       1.71712400      -0.01801338       9.37817919
Cu       1.31044296       2.30578054       9.37817919
Cu      -0.00000022       2.52256470       3.07197100
Cu      -0.00000022       2.52256470       6.01085242
24
Lattice="4.65612 0.0 0.0 -0.775455721024847 5.796197123142883 0.0 0.0 0.0 9.87549" Properties=species:S:1:pos:R:3 config_type=buildcell buildcell_config_i=85 RSS_min_vol_per_atom=6.0 buildcell_type=narrow_even gap_rss_group=ALL gap_rss_iter=1 buildcell_symmetry="4 P2_1 P 2yb @ 0.01" _ConfigSet_loc=" / 5" pbc="T T T"
Cu       4.16292170       2.82304013       0.13258339
Cu      -0.28225742       2.97315700       5.07032839
Cu       4.71208238       1.32804555       7.86582976
Cu      -0.83141810       4.46815157       2.92808476
Cu       1.62877058       0.51147672       2.64064974
Cu       2.25189370       5.28472040       7.57839474
Cu       1.83637980       2.92877204       6.33443851
Cu       2.04428448       2.86742509       1.39669351
Cu       2.34414834       3.06544463       3.99126915
Cu       1.53651594       2.73075250       8.92901415
Cu       0.07191647       5.18108903       8.81622322
Cu       3.80874781       0.61510809       3.87847822
Cu       2.94557451       4.75571946       0.43229562
Cu       0.93508977       1.04047766       5.37004062
Cu       0.90717360       4.82270379       4.39618893
Cu       2.97349068       0.97349333       9.33393393
Cu       0.93089658       1.05677831       0.51800204
Cu       2.94976770       4.73941881       5.45574704
Cu       0.57282521       4.61206767       1.11219250
Cu       3.30783907       1.18412945       6.04993750
Cu       0.28452196       4.60547276       6.59960925
Cu       3.59614231       1.19072437       1.66186425
Cu       3.48429549       3.36610149       7.87862642
Cu       0.39636879       2.43009564       2.94088142
6
Lattice="4.4778 0.0 0.0 -1.4926007709544582 4.362429328097609 0.0 -1.4926007709544582 -2.1812147704901634 3.7779745588928604" Properties=species:S:1:pos:R:3 config_type=buildcell buildcell_config_i=86 RSS_min_vol_per_atom=6.0 buildcell_type=narrow_even gap_rss_group=ALL gap_rss_iter=1 buildcell_symmetry="146 R3 R 3 @ 0.01" _ConfigSet_loc=" / 6" pbc="T T T"
Cu       3.12981714       1.92592813       0.27791196
Cu       0.14461700       1.45892980       1.97111591
Cu       1.63721669       3.15878661       1.52894630
Cu      -0.60168330      -0.49242938       3.58569681
Cu       2.38351677       1.17030449       2.41158241
Cu       0.89091736      -0.67787532       1.55866990
24
Lattice="4.69883 0.0 0.0 -2.349414999999999 4.069306148064435 0.0 0.0 0.0 15.70671" Properties=species:S:1:pos:R:3 config_type=buildcell buildcell_config_i=87 RSS_min_vol_per_atom=6.0 buildcell_type=narrow_even gap_rss_group=ALL gap_rss_iter=1 buildcell_symmetry="144 P3_1 P 31 @ 0.01" _ConfigSet_loc=" / 7" pbc="T T T"
Cu      -0.03632360       2.95928122       1.47516949
Cu      -0.19523592       2.55820838       6.71073897
Cu       0.23155952       2.62112270      11.94630844
Cu       0.98289868       0.62009023      11.09700737
Cu       3.67036654       0.54117051       0.62586684
Cu       2.39497908       2.90804581       5.86143789
Cu       2.10478169       0.72590399       5.19516868
Cu       3.01778762       1.45984283      10.43073815
Cu       1.92567498       1.88355974      15.66630763
Cu       0.92888022       0.89407295       1.78093201
Cu       3.46009977       0.35739780       7.01650306
Cu       2.65926431       2.81783580      12.25207254
Cu       2.84292066       0.59543430       3.02075373
Cu       2.76170867       2.16432396       8.25632478
Cu       1.44361637       1.30954748      13.49189426
Cu       0.29278151       1.96615485       9.36416773
Cu       0.50028420       3.33978495      14.59973720
Cu      -0.79306571       2.83267249       4.12859668
Cu       2.14846742       3.10647454       2.67020824
Cu       0.93431042       0.30739010       7.90577772
Cu       3.96546716       0.65544151      13.14134876
Cu       1.80594879       3.66196372       9.71696871
Cu      -1.72491277       3.80232141      14.95253975
Cu      -0.08103532       0.67432676       4.48139923
