16
Lattice="4.53731 0.0 0.0 0.0 4.53731 0.0 0.0 0.0 14.35313" Properties=species:S:1:pos:R:3 config_type=buildcell buildcell_config_i=60 RSS_min_vol_per_atom=9.0 buildcell_type=narrow gap_rss_group=ALL gap_rss_iter=1 buildcell_symmetry="76 P4_1 P 4w @ 0.01" _ConfigSet_loc=" / 0" pbc="T T T"
Li       2.43292513       1.37672421      12.58690128
Li       2.10438487       3.16058579       5.41033628
Li       3.16058579       2.43292513       1.82205378
Li       1.37672421       2.10438487       8.99861878
Li       0.05580574       2.37278626      13.88733218
Li       4.48150426       2.16452374       6.71076718
Li       2.16452374       0.05580574       3.12248468
Li       2.37278626       4.48150426      10.29904968
Li       4.43318554       0.75141211       4.41059915
Li       0.10412446       3.78589789      11.58716415
Li       3.78589789       4.43318554       7.99888165
Li       0.75141211       0.10412446       0.82231665
Cu       2.45195506       3.64542413      13.63718870
Cu       2.08535494       0.89188587       6.46062370
Cu       0.89188587       2.45195506       2.87234120
Cu       3.64542413       2.08535494      10.04890620
24
Lattice="3.64887 0.0 0.0 1.8168859577178487 8.960422349953584 0.0 1.3082760980835562 3.4997586715312154 12.482494293795023" Properties=species:S:1:pos:R:3 config_type=buildcell buildcell_config_i=61 RSS_min_vol_per_atom=9.0 buildcell_type=narrow gap_rss_group=ALL gap_rss_iter=1 buildcell_symmetry="1 P1 P 1 @ 0.01" _ConfigSet_loc=" / 1" pbc="T T T"
Li       1.91279863       3.15696955       0.51793364
Li       1.88717256       7.54851440       0.48314867
Li       3.42432692       3.98686459      10.13444350
Li       3.73203786       1.37275246      -0.37469702
Li       2.61493426      10.05755908       3.71492511
Li       4.43238572       2.08872459       6.73651632
Li       3.54165011       6.54757187       7.19489473
Li       2.60424853       7.63587681       4.90872091
Li       3.73724480       3.39809893       2.49354925
Li       4.42868931       7.28477286       2.94962588
Li       5.04552362       7.42118076      11.16280880
Li       3.72189698       9.34721517       1.35695573
Li       3.71229755       5.58415147       0.80741641
Li       4.14101129       4.98645523       5.06239414
Li       5.24877073       5.68852954       9.10212999
Li       4.29847536       9.78170087       9.07975636
Li       2.60795931       4.01456347       7.23894670
Li       2.60793545       2.74335243       4.85694976
Cu       2.41331121       8.73085588       7.65319825
Cu       4.25892415       8.95291559       6.24291231
Cu       5.01272758      10.73570255      11.27751793
Cu       1.91280801       5.10718952       2.47602382
Cu       3.22110684       7.55780697       9.45910061
Cu       3.22108521       9.11971951      11.35348264
20
Lattice="3.97547 0.0 0.0 0.0 10.39536 0.0 0.0 -5.197679999999997 9.002645841484604" Properties=species:S:1:pos:R:3 config_type=buildcell buildcell_config_i=62 RSS_min_vol_per_atom=9.0 buildcell_type=narrow gap_rss_group=ALL gap_rss_iter=1 buildcell_symmetry="157 P31m P 3 -2 @ 0.01" _ConfigSet_loc=" / 2" pbc="T T T"
Li       2.43135491       6.17622850       4.60549794
Li       2.43135491       3.31876754       3.04602181
Li       2.43135491       6.09804396       1.35112609
Li       2.43135491       0.90036396       7.65151975
Li       2.43135491       0.97854850       4.39714790
Li       2.43135491      -1.87891246       5.95662403
Li       0.44362071      -0.12267824       2.93901907
Li       0.44362071       2.71375395       7.42689383
Li       0.44362071      -2.59107571       7.63937878
Li       0.44362071       2.60660429       1.36326706
Li       0.44362071       5.07500176       6.06362678
Li       0.44362071       7.91143395       1.57575201
Li       2.43135412      -4.41826294       7.65265588
Li       2.43135412       0.77941706       1.34998996
Li       2.43135412       8.83652587       0.00000000
Cu       2.43135531      -1.63508565       2.83205143
Cu       2.43135531       3.56259435       6.17059441
Cu       2.43135531       3.27017131       0.00000000
Cu       0.78234308       5.19768052       3.00088165
Cu       0.78234308      -0.00000052       6.00176419
20
Lattice="6.04441 0.0 0.0 0.0 8.62113 0.0 -3.022206500108567 -4.310563600327385 6.9263959833837205" Properties=species:S:1:pos:R:3 config_type=buildcell buildcell_config_i=63 RSS_min_vol_per_atom=9.0 buildcell_type=narrow gap_rss_group=ALL gap_rss_iter=1 buildcell_symmetry="23 I222 I 2 2 @ 0.01" _ConfigSet_loc=" / 3" pbc="T T T"
Li       0.12412668       2.89103440       4.73741866
Li       3.14633223       1.41953200       2.18897732
Li       2.89807682       7.20159888       2.18897732
Li      -0.12412873      -2.89103248       4.73741866
Li       2.11331966       1.07581321       4.64018315
Li       5.13552517       3.23475318       2.28621284
Li       0.90888384       5.38637774       2.28621284
Li      -2.11332167      -1.07581134       4.64018315
Li       4.36923258       6.41473973       0.08024368
Li       1.34702611      -2.10417333       6.84615230
Li      -1.34702908       2.10417610       6.84615230
Li       1.67517739       2.20639030       0.08024368
Li      -0.00000073       0.00000068       3.36522135
Li       3.02220423       4.31056572       3.56117463
Li      -3.02220650       0.00000140       6.92639598
Cu      -1.87477777       4.29539901       5.77829321
Cu       1.14742823       0.01516739       1.14810277
Cu       4.89698127      -0.01516692       1.14810277
Cu       1.87477527       4.32573332       5.77829321
Cu       3.02220500       4.31056500       0.00000000
16
Lattice="4.64326 0.0 0.0 1.0510315987491021 8.311045818429285 0.0 1.1777498567641065 3.4224824557767204 7.848606398284518" Properties=species:S:1:pos:R:3 config_type=buildcell buildcell_config_i=64 RSS_min_vol_per_atom=9.0 buildcell_type=narrow gap_rss_group=ALL gap_rss_iter=1 buildcell_symmetry="1 P1 P 1 @ 0.01" _ConfigSet_loc=" / 4" pbc="T T T"
Li       2.93416490       2.79616434       2.73543162
Li       5.09144394       7.11246276       7.85379197
Li       5.25579125       2.69038523       4.10974772
Li       1.25139922       4.68405430       1.78986763
Li       5.91731932       5.49453821       5.44928193
Li       3.87839190       5.20465254       3.50843380
Li       1.58935310       2.37468142       0.43244879
Li       2.40031643       8.82709593       7.03660057
Li       3.12879035       6.37588142       0.83653822
Li       1.88189577       8.43167534       2.78961212
Li       3.59971507       6.86961411       5.61556878
Li       0.33483742       0.00270558       0.12678325
Cu       3.37001989       4.41817013       6.28486183
Cu       3.95229204       8.85753181       4.13011799
Cu       4.44644664       2.39290214       6.45632327
Cu       2.93855934       0.48139253       1.49102095
16
Lattice="4.63638 0.0 0.0 1.4383879497092933 6.399470795544823 0.0 1.1433098042125662 1.097615360165551 10.17578338771124" Properties=species:S:1:pos:R:3 config_type=buildcell buildcell_config_i=65 RSS_min_vol_per_atom=9.0 buildcell_type=narrow gap_rss_group=ALL gap_rss_iter=1 buildcell_symmetry="2 P-1 -P 1 @ 0.01" _ConfigSet_loc=" / 5" pbc="T T T"
Li       1.94535210       4.01145212       6.61079130
Li       5.27272565       3.48563404       3.56499209
Li       1.54940013       3.07608072       1.05730460
Li       5.66867762       4.42100543       9.11847879
Li       3.44269240       2.98062712       8.60844411
Li       3.77538536       4.51645903       1.56733928
Li       1.12451023       1.78745027       7.90686353
Li       6.09356752       5.70963588       2.26891986
Li       3.35049417       5.68960974       8.56488158
Li       3.86758358       1.80747641       1.61090181
Li       3.65231261       1.53834730       4.49894890
Li       3.56576515       5.95873885       5.67683449
Cu       5.87234881       5.58102054       4.78963541
Cu       1.34572895       1.91606562       5.38614798
Cu       3.95427003       0.60468409       9.20316268
Cu       3.26380773       6.89240207       0.97262071
8
Lattice="2.76068 0.0 0.0 0.0 5.76429 0.0 -1.102816596092602 0.0 8.960167815603832" Properties=species:S:1:pos:R:3 config_type=buildcell buildcell_config_i=66 RSS_min_vol_per_atom=9.0 buildcell_type=narrow gap_rss_group=ALL gap_rss_iter=1 buildcell_symmetry="7 Pc P -2yc @ 0.01" _ConfigSet_loc=" / 6" pbc="T T T"
Li       0.57286098       1.51250185       0.54591883
Li       1.95320098       4.25178815       0.54591883
Li       0.66654040       4.04255595       6.82049408
Li      -0.71379960       1.72173405       6.82049408
Li       0.66643423       1.16024263       4.56890426
Li      -0.71390577       4.60404737       4.56890426
Cu       1.95331691       1.96226519       2.58127382
Cu       0.57297691       3.80202481       2.58127382
12
Lattice="4.77573 0.0 0.0 0.0 6.49192 0.0 -0.6129689157776732 -3.245958597357288 7.240826215297026" Properties=species:S:1:pos:R:3 config_type=buildcell buildcell_config_i=67 RSS_min_vol_per_atom=9.0 buildcell_type=narrow gap_rss_group=ALL gap_rss_iter=1 buildcell_symmetry="5 C2 C 2y @ 0.01" _ConfigSet_loc=" / 7" pbc="T T T"
Li       4.97644540       3.29185489       1.33497665
Li      -0.81368432       0.04589577       5.90584957
Li       3.92451397       0.53366417       2.22003297
Li       0.23824711       3.77962471       5.02079324
Li       1.01381176      -0.35383711       3.95897459
Li       3.14894932       2.89212341       3.28185162
Li       2.33221679       4.91156433       1.68581785
Li       1.83054430       1.66560508       5.55500837
Li       2.38786500       0.52812418       0.00000000
Cu       2.64960724      -1.90046511       5.04614627
Cu       1.51315385       1.34549434       2.19467994
Cu       2.38786500       3.06366104       0.00000000
8
Lattice="4.50211 0.0 0.0 -1.299426345482759 4.8267891006615695 0.0 -1.789703040119341 -1.6936401600269302 6.515190823101925" Properties=species:S:1:pos:R:3 config_type=buildcell buildcell_config_i=68 RSS_min_vol_per_atom=9.0 buildcell_type=narrow gap_rss_group=ALL gap_rss_iter=1 buildcell_symmetry="1 P1 P 1 @ 0.01" _ConfigSet_loc=" / 8" pbc="T T T"
Li       1.30923584       3.03458414       2.35001304
Li      -0.87608606      -0.13001842       5.69283301
Li      -0.85069740       2.46489197       6.43832721
Li       3.28175145       2.22004117       0.69603478
Li       0.08737184      -0.01628979       1.46062434
Li       1.91553132       0.60949960       3.37041180
Cu      -0.33605374       1.54883519       3.92063465
Cu       1.33276266       2.45199304       5.22037939
12
Lattice="6.5038 0.0 0.0 2.1993075173958756 6.17088540097983 0.0 2.9776155198572396 1.956101001071537 5.645805124117572" Properties=species:S:1:pos:R:3 config_type=buildcell buildcell_config_i=69 RSS_min_vol_per_atom=9.0 buildcell_type=narrow gap_rss_group=ALL gap_rss_iter=1 buildcell_symmetry="1 P1 P 1 @ 0.01" _ConfigSet_loc=" / 9" pbc="T T T"
Li       9.14290923       2.65259331       5.36415284
Li       2.00238281       1.30521957       1.50051837
Li       7.78870059       4.99097220       4.72768655
Li       9.67020189       7.21713591       3.98063305
Li       5.34842522       5.78689888       3.28555145
Li       3.90004815       5.05770132       5.44435602
Li       4.98688396       2.15074632       4.08310329
Li       7.08328834       3.94684369       2.33978424
Li       5.31964297       5.16744687       0.65777187
Cu       3.27423848       3.41634279       1.91948341
Cu       5.19614455       2.23845327       1.46234878
Cu       5.97811798       6.52031706       5.59108598
