8
Lattice="4.05679 0.0 0.0 -2.0283949999999993 3.5132831978186734 0.0 0.0 0.0 8.73617" Properties=species:S:1:pos:R:3 config_type=buildcell buildcell_config_i=50 RSS_min_vol_per_atom=7.0 buildcell_type=wide gap_rss_group=ALL gap_rss_iter=1 buildcell_symmetry="143 P3 P 3 @ 0.01" _ConfigSet_loc=" / 0" pbc="T T T"
Li       2.02839520       1.17109428       8.94814443
Li      -0.00000020       2.34218892       4.75993804
Cu       0.62624870       1.17100118       6.87838239
Cu      -1.32740258       2.38543532       6.87838239
Cu       0.70115388       3.47012989       6.87838239
Cu       0.00000000       0.00000000       1.08597058
Cu       2.02839520       1.17109428       2.76301644
Cu       0.00000000       0.00000000       3.38594730
24
Lattice="6.52574 0.0 0.0 0.0 8.15272 0.0 -3.098209722660658 0.0 7.715321557583389" Properties=species:S:1:pos:R:3 config_type=buildcell buildcell_config_i=51 RSS_min_vol_per_atom=7.0 buildcell_type=wide gap_rss_group=ALL gap_rss_iter=1 buildcell_symmetry="13 P2/c -P 2yc @ 0.01" _ConfigSet_loc=" / 1" pbc="T T T"
Li       3.71114628       2.84678797       0.63759340
Li       4.52835886       2.84678797       3.22006738
Li      -0.28361601       5.30593203       7.07772816
Li      -1.10082858       5.30593203       4.49525418
Li       2.57064771       1.73056565       5.78649117
Li       0.85688257       6.42215435       1.92883039
Cu       4.08525697       8.02681836       5.06857432
Cu       1.05603845       8.02681836       6.50440801
Cu      -0.65772669       0.12590164       2.64674723
Cu       2.37149183       0.12590164       1.21091355
Cu       0.54988240       3.36343725       5.74239502
Cu      -1.93432699       3.36343725       5.83058732
Cu       2.87764787       4.78928275       1.97292654
Cu       5.36185727       4.78928275       1.88473424
Cu       2.55981002       3.93041490       6.97425181
Cu       2.58148540       3.93041490       4.59873053
Cu       0.86772026       4.22230510       0.74106975
Cu       0.84604488       4.22230510       3.11659103
Cu       1.01154355       7.03229088      -0.49102004
Cu       0.70222158       7.03229088       4.34868082
Cu       2.41598672       1.12042912       8.20634160
Cu       2.72530869       1.12042912       3.36664074
Cu       0.85688257       1.70413942       1.92883039
Cu       2.57064771       6.44858058       5.78649117
24
Lattice="4.99715 0.0 0.0 0.0 7.83194 0.0 0.0 0.0 9.74531" Properties=species:S:1:pos:R:3 config_type=buildcell buildcell_config_i=52 RSS_min_vol_per_atom=7.0 buildcell_type=wide gap_rss_group=ALL gap_rss_iter=1 buildcell_symmetry="30 Pnc2 P 2 -2bc @ 0.01" _ConfigSet_loc=" / 2" pbc="T T T"
Li       3.93592774       5.59816498       3.40746713
Li       1.06122226       2.23377502       3.40746713
Li       3.55979726       5.59816498       8.28012213
Li       1.43735274       2.23377502       8.28012213
Li       0.00000000       0.00000000       9.04536968
Li       2.49857500       7.83194000       4.17271468
Cu       3.86986842       0.22832925       2.09486256
Cu       1.12728158       7.60361075       2.09486256
Cu       3.62585658       0.22832925       6.96751756
Cu       1.37129342       7.60361075       6.96751756
Cu       3.70557162       2.55044855       7.06565283
Cu       1.29157838       5.28149145       7.06565283
Cu       3.79015338       2.55044855       2.19299783
Cu       1.20699662       5.28149145       2.19299783
Cu      -0.60823011       6.10421639       1.00150797
Cu       5.60538011       1.72772361       1.00150797
Cu       3.10680511       6.10421639       5.87416297
Cu       1.89034489       1.72772361       5.87416297
Cu       0.46037793       6.69045511       5.06321869
Cu       4.53677207       1.14148489       5.06321869
Cu       2.03819707       6.69045511       0.19056369
Cu       2.95895293       1.14148489       0.19056369
Cu       0.00000000       3.91597000       0.63879240
Cu       2.49857500       3.91597000       5.51144740
16
Lattice="3.27518 0.0 0.0 -0.03321528087705793 7.88353002817369 0.0 0.0 0.0 10.1507" Properties=species:S:1:pos:R:3 config_type=buildcell buildcell_config_i=53 RSS_min_vol_per_atom=7.0 buildcell_type=wide gap_rss_group=ALL gap_rss_iter=1 buildcell_symmetry="6 Pm P -2y @ 0.01" _ConfigSet_loc=" / 3" pbc="T T T"
Li       1.23615729       1.33240960       2.60562988
Li       1.23615729       1.33240960       7.54507012
Li       2.87371908      -0.49909840       3.72535664
Li       2.87371908      -0.49909840       6.42534336
Cu       1.20290119       5.50607417       6.22534006
Cu       1.20290119       5.50607417       3.92535994
Cu       2.87398001       2.53656520       9.00071603
Cu       2.87398001       2.53656520       1.14998397
Cu      -0.17490204       2.95920125       6.22560296
Cu      -0.17490204       2.95920125       3.92509704
Cu       1.41047993       3.81608184       2.37916370
Cu       1.41047993       3.81608184       7.77153630
Cu       1.62040079      -0.66951431       9.00063077
Cu       1.62040079      -0.66951431       1.15006923
Cu      -0.22701668       4.86720551       1.15290128
Cu      -0.22701668       4.86720551       8.99779872
16
Lattice="3.9298 0.0 0.0 0.5230468526394286 6.704959776079495 0.0 1.3342335761756439 1.8934835042225668 9.082499333985254" Properties=species:S:1:pos:R:3 config_type=buildcell buildcell_config_i=54 RSS_min_vol_per_atom=7.0 buildcell_type=wide gap_rss_group=ALL gap_rss_iter=1 buildcell_symmetry="1 P1 P 1 @ 0.01" _ConfigSet_loc=" / 4" pbc="T T T"
Li       1.98039705       2.93850746       3.75491231
Li       3.52285552       1.16554614       1.03652025
Li       4.09115037       5.46246574       4.96036886
Li       2.85345337       3.89819396       7.81431177
Cu       1.98063774       2.20147199       6.19898472
Cu       2.12625439       7.00811479       4.95646248
Cu       3.19448174       7.03677878       8.25610452
Cu       1.70965832       0.69229902       2.69129351
Cu       4.81579724       5.40534893       8.17161638
Cu       1.27352527       2.99109104       1.34201012
Cu       3.67206699       1.10103928       3.86548719
Cu       3.46498646       4.22362535       2.20751781
Cu       3.82514824       5.48592606       0.31890835
Cu       1.50002766       5.22382508       2.86248318
Cu       3.95994736       1.01427912       6.47735152
Cu       3.94530310       2.98992564       5.29974463
8
Lattice="5.04527 0.0 0.0 0.13772538386129035 5.04338984132104 0.0 0.13772538386129035 0.13401570914396588 5.041608957589125" Properties=species:S:1:pos:R:3 config_type=buildcell buildcell_config_i=55 RSS_min_vol_per_atom=7.0 buildcell_type=wide gap_rss_group=ALL gap_rss_iter=1 buildcell_symmetry="146 R3 R 3 @ 0.01" _ConfigSet_loc=" / 5" pbc="T T T"
Li       2.41491660       2.34987009       2.28823607
Li       4.01584699       3.90767894       3.80518562
Cu       4.83178904       3.91818922       1.07005176
Cu       4.04862688       1.19517684       4.69292826
Cu       1.30525055       4.79794641       3.88837166
Cu       0.01983168       1.77194063       2.71196565
Cu       1.77182167       2.71024948      -0.10059976
Cu       2.75760654      -0.05546592       1.69925111
24
Lattice="8.03509 0.0 0.0 -0.3798493634119951 8.02610651369738 0.0 -3.827618299618569 -4.013051140376483 6.124111506067479" Properties=species:S:1:pos:R:3 config_type=buildcell buildcell_config_i=56 RSS_min_vol_per_atom=7.0 buildcell_type=wide gap_rss_group=ALL gap_rss_iter=1 buildcell_symmetry="43 Fdd2 F 2 -2d @ 0.01" _ConfigSet_loc=" / 6" pbc="T T T"
Li       5.36388529       1.95543997       0.91755358
Li       2.29135596       6.07066717       0.91755358
Li       1.93801484       2.57577881       3.97960933
Li      -2.31786158       5.45033046       3.97960933
Li      -0.18992250       4.01305554       5.45833301
Li       3.82762149       4.01305449       2.39627726
Cu      -0.16385894       6.18174576       2.32562889
Cu      -0.21598889       1.84436236       2.32562889
Cu      -2.16503307      -0.12855630       5.38768465
Cu       2.16503662       0.12856002       5.38768465
Cu       1.12208533       0.27449199       3.34296569
Cu      -1.12208312      -0.27448968       3.34296569
Cu       7.62402667       2.87924742       0.28090993
Cu       0.03121415       5.14685928       0.28090993
Cu       6.30008728       4.27420569       1.69233942
Cu       1.35515447       3.75190199       1.69233942
Cu      -0.33390007       1.53100714       4.75439518
Cu       0.33390320      -1.53100386       4.75439518
Cu       2.94865569       2.51126178       0.58766668
Cu       4.70658530       5.51484594       0.58766668
Cu       1.26863793       4.96203206       3.64972243
Cu      -1.64848408       3.06407698       3.64972243
Cu       3.82762232       4.01305535       4.89752240
Cu       4.01754599       0.00000104       1.83546665
12
Lattice="3.23083 0.0 0.0 -1.3593080463388723 4.734843486870331 0.0 0.0 0.0 10.91736" Properties=species:S:1:pos:R:3 config_type=buildcell buildcell_config_i=57 RSS_min_vol_per_atom=7.0 buildcell_type=wide gap_rss_group=ALL gap_rss_iter=1 buildcell_symmetry="6 Pm P -2y @ 0.01" _ConfigSet_loc=" / 7" pbc="T T T"
Li      -0.42423128       3.42258635       7.94418731
Li      -0.42423128       3.42258635       2.97317269
Li       1.83787682       4.19388999       5.45868000
Cu       1.19116973       3.98540394       1.14999977
Cu       1.19116973       3.98540394       9.76736023
Cu       0.83528745       1.72552091       6.60867431
Cu       0.83528745       1.72552091       4.30868569
Cu       2.53231150       0.61067928       7.91043084
Cu       2.53231150       0.61067928       3.00692916
Cu       1.13008653       1.72359856       9.35443948
Cu       1.13008653       1.72359856       1.56292052
Cu       2.74549853       1.23604415       0.00000000
20
Lattice="6.57417 0.0 0.0 0.0 6.88429 0.0 0.0 -3.4421449999999987 5.9619700270191744" Properties=species:S:1:pos:R:3 config_type=buildcell buildcell_config_i=58 RSS_min_vol_per_atom=7.0 buildcell_type=wide gap_rss_group=ALL gap_rss_iter=1 buildcell_symmetry="143 P3 P 3 @ 0.01" _ConfigSet_loc=" / 8" pbc="T T T"
Li       0.45980928       5.79167470       2.63187828
Li       0.45980928       1.70917920       3.69979828
Li       0.45980928       2.82558110      -0.36970653
Li       2.58913693      -0.00000034       3.97464688
Li       5.87030780       3.44214534       1.98732314
Cu       3.98392138       2.77858343       0.48695463
Cu       3.98392138       5.07328320       2.16284652
Cu       3.98392138       2.47456837       3.31216887
Cu       2.46286158       2.48847670       5.03736029
Cu       2.46286158       1.27756967      -0.36359611
Cu       2.46286158       6.56038863       1.28820584
Cu       2.25503301       1.98808898       1.86037849
Cu       2.25503301       0.83696547       6.75351634
Cu       2.25503301      -2.82505446       3.31004522
Cu       0.00204194       1.84437323       6.15380893
Cu       0.00204194      -2.80939648       4.48233963
Cu       0.00204194       0.96502325       1.28779149
Cu       4.64325278       0.41084961       2.46736845
Cu       4.64325278       1.09991644       5.08409200
Cu       4.64325278      -1.51076605       4.37247960
16
Lattice="6.06585 0.0 0.0 0.0 6.08638 0.0 0.0 0.0 6.8768" Properties=species:S:1:pos:R:3 config_type=buildcell buildcell_config_i=59 RSS_min_vol_per_atom=7.0 buildcell_type=wide gap_rss_group=ALL gap_rss_iter=1 buildcell_symmetry="34 Pnn2 P 2 -2n @ 0.01" _ConfigSet_loc=" / 9" pbc="T T T"
Li       0.28931678       4.59589614       5.71444544
Li       5.77653322       1.49048386       5.71444544
Li       3.32224178       4.53367386       2.27604544
Li       2.74360822       1.55270614       2.27604544
Cu       1.92325235       2.60740884       6.04149230
Cu       4.14259765       3.47897116       6.04149230
Cu       4.95617735       0.43578116       2.60309230
Cu       1.10967265       5.65059884       2.60309230
Cu       4.72793822       2.66034087       1.23373505
Cu       1.33791178       3.42603913       1.23373505
Cu       1.69501322       0.38284913       4.67213505
Cu       4.37083678       5.70353087       4.67213505
Cu       3.53646213       1.76048298       4.63784389
Cu       2.52938787       4.32589702       4.63784389
Cu       0.50353713       1.28270702       1.19944389
Cu       5.56231287       4.80367298       1.19944389
