20
Lattice="4.34148 0.0 0.0 0.0 10.72968 0.0 0.0 -5.364839999999997 9.292175454477817" Properties=species:S:1:pos:R:3 config_type=buildcell buildcell_config_i=70 RSS_min_vol_per_atom=9.0 buildcell_type=wide gap_rss_group=ALL gap_rss_iter=0 buildcell_symmetry="1 P1 P 1 @ 0.01" _ConfigSet_loc=" / 0" pbc="T T T"
Li       3.39752600      -1.23823421       8.43587043
Li       3.50015758       2.47353410       6.14357921
Li       3.50577587      -1.19579979       3.99930992
Li       1.04788141       7.81544874       3.07860957
Li       1.01782164       3.90096978       5.07342631
Li       0.93739666       4.03915018       0.95249862
Li       2.61039438       6.39168873       4.88690128
Li       2.67861916       6.21038502       1.12185853
Li       2.64675851       3.36906096       3.17240634
Li       1.67785301       0.77872833       7.99867273
Li       1.58011255      -1.82164348       6.00332003
Li       1.53451212       1.25033359       4.42975469
Li       4.36236636      -4.16393358       6.73990109
Li       0.01968612       8.00977979       0.01713683
Li      -0.01156483       1.36676306       2.27160356
Cu       4.26949558      -1.05920908       1.86053119
Cu       0.03436183       1.84998640       0.03240840
Cu      -0.03850823       4.28400259       7.59852411
Cu       3.57704458       0.09312748       6.11086219
Cu       0.83661414       5.39796688       3.19494602
24
Lattice="4.36512 0.0 0.0 -0.9595725431431634 7.8651105204787655 0.0 -1.9950546138790664 -0.9717365048081578 10.574908827524853" Properties=species:S:1:pos:R:3 config_type=buildcell buildcell_config_i=71 RSS_min_vol_per_atom=9.0 buildcell_type=wide gap_rss_group=ALL gap_rss_iter=0 buildcell_symmetry="1 P1 P 1 @ 0.01" _ConfigSet_loc=" / 1" pbc="T T T"
Li       2.91786323       5.33579012       7.61646564
Li       1.11583864       5.55431976       0.49235422
Li       1.14109294       6.68708850       6.04205968
Li      -1.03919383       2.19980138       9.31532402
Li       3.16959504       3.82317559       0.08144033
Li       0.91638674       4.93432638       3.27533406
Li       0.89632211       5.22878928       9.62526808
Li      -1.21754836       6.93376031       9.56969382
Li      -0.29470331       0.09765617       6.81156956
Li       2.91601636       0.46238482       2.50724471
Li      -3.44019529       8.11265815       8.50091187
Li       0.93941436       4.02612552       5.58479949
Li      -0.95919875       1.49601984       4.76557222
Li       3.16995582       6.11745788       2.04601134
Li       3.14681221       3.45850443       2.75166725
Li       0.62846570      -0.23079438       4.05425205
Li       1.00991493       2.68972102       1.47915216
Li      -1.19118390       5.24861581       4.94121205
Cu       1.73047674       1.80766329       6.57746712
Cu      -0.89730622       3.03813359       7.10244920
Cu      -0.31181644       8.23163729       1.24534476
Cu       3.25332508       1.61481534       0.44318254
Cu       0.99291213       3.25058795       8.37475522
Cu       1.13599206       2.30951551       4.00903260
24
Lattice="4.76286 0.0 0.0 -1.2436573189197642 7.215293544215461 0.0 -1.7080489119826316 -2.5834052588361276 11.566205945706345" Properties=species:S:1:pos:R:3 config_type=buildcell buildcell_config_i=72 RSS_min_vol_per_atom=9.0 buildcell_type=wide gap_rss_group=ALL gap_rss_iter=0 buildcell_symmetry="1 P1 P 1 @ 0.01" _ConfigSet_loc=" / 2" pbc="T T T"
Li       1.77536499       5.76213945       3.80105125
Li       1.67572159       5.79246433       0.38277526
Li       1.48069889       2.30957311       9.92089791
Li       2.70844118       4.03279316       5.57344649
Li       2.49807014      -0.28051739       9.01785700
Li       0.40560057       2.51389932       5.06804130
Li      -0.19183518       3.52489167       0.38015135
Li      -0.38105283       0.89556884       2.98714041
Li      -0.45032319       3.23411550       7.40839260
Li      -0.94998726       5.44584014       1.97050734
Li       1.74153360       4.88550009       8.10411324
Li      -0.76148873       6.37822741       4.77523807
Li       2.55774327       2.53531011       1.47930810
Li       0.19714057      -0.21929167      10.61261308
Li       1.97398082       1.94332326       7.13634190
Li       0.38769114       0.35390480       0.43243325
Li      -1.57757307      -0.43864132       6.35059413
Li       0.64660523      -1.36547366       7.62998061
Cu       2.27977545       1.02437989       4.26450672
Cu      -1.43463222       3.70217131       9.86507664
Cu      -0.17582230       0.88769617       8.31275439
Cu       1.56830185      -2.16167153      10.32273570
Cu       0.58619166       3.84820581       2.84801583
Cu       2.12074426       0.34782171       2.28728172
20
Lattice="3.6709 0.0 0.0 -0.6203210021756755 9.000939878610442 0.0 -1.58842761515538 -3.0926548990225964 12.315809984185503" Properties=species:S:1:pos:R:3 config_type=buildcell buildcell_config_i=73 RSS_min_vol_per_atom=9.0 buildcell_type=wide gap_rss_group=ALL gap_rss_iter=0 buildcell_symmetry="1 P1 P 1 @ 0.01" _ConfigSet_loc=" / 3" pbc="T T T"
Li      -0.23529455       3.96784635       8.54798252
Li       0.61505919       5.38930320       1.55744737
Li      -0.12768780       1.03821916       8.23076093
Li      -0.23168810       1.97297236      10.75197725
Li      -0.74795723      -0.17834300      12.36624175
Li       2.62064711      -1.16986314       6.07215834
Li       0.80405085       3.47077523       6.15396821
Li      -2.00987235       4.10154613      10.95229157
Li      -1.11675741       6.25162550       9.62682827
Li       2.37660028       5.53167268       3.65635031
Li       0.96035109       1.72926011       4.27466995
Li       0.11567072       0.15197967       2.03789195
Li       1.45747167       7.56602266       0.54111976
Li       1.56951719      -0.92211782       8.59397405
Li       0.16479210       6.04654288       6.69570965
Cu      -1.01257657       1.86942109       6.16738763
Cu       2.44011088       3.49640384       2.09978090
Cu       0.44713155       3.80905655       3.61439704
Cu       1.65348510       2.51276836       9.06375942
Cu       1.30430634      -1.21958695      11.15189426
12
Lattice="6.5486 0.0 0.0 -3.274299999999999 5.671253959222776 0.0 0.0 0.0 6.88327" Properties=species:S:1:pos:R:3 config_type=buildcell buildcell_config_i=74 RSS_min_vol_per_atom=9.0 buildcell_type=wide gap_rss_group=ALL gap_rss_iter=0 buildcell_symmetry="1 P1 P 1 @ 0.01" _ConfigSet_loc=" / 4" pbc="T T T"
Li       2.12640831       2.87848757       4.80313552
Li       3.15771714       0.32893457       4.71495297
Li       4.89867024       2.50333353       4.69141923
Li      -0.56465709       2.30350771       1.23426109
Li       1.57292343       3.76900673       1.10834228
Li      -0.98604286       4.93104057       1.31225880
Li       1.01674234       0.95693593       6.65459892
Li       5.02121008       0.41683155       6.36555922
Li       3.61712927       4.17410118       6.39293468
Cu      -2.01797909       4.60022272       3.61412203
Cu       0.20597721       1.74618092       3.64194169
Cu       1.68362993       5.20352272       3.52120704
16
Lattice="4.26226 0.0 0.0 0.9933511780174303 4.144890076314616 0.0 0.19766881688122476 0.15589348027014993 14.753992407522855" Properties=species:S:1:pos:R:3 config_type=buildcell buildcell_config_i=75 RSS_min_vol_per_atom=9.0 buildcell_type=wide gap_rss_group=ALL gap_rss_iter=0 buildcell_symmetry="1 P1 P 1 @ 0.01" _ConfigSet_loc=" / 5" pbc="T T T"
Li       4.68285878       0.50049850       1.29201479
Li       1.83109789       4.44026739       8.58082845
Li       2.63237553       0.97576296      13.71095720
Li       1.40637461       2.07250352       6.33433546
Li       1.37930785       4.13232948      12.06628426
Li       4.36535248       0.13090572       4.89320457
Li       2.19964356       0.91965642       3.57257913
Li       1.64173527       2.06482598      10.66053563
Li       3.75549472       3.86237294      10.02966763
Li       4.57189633       2.66943878       2.73860140
Li       4.84388367       3.02936561      14.38033159
Li       3.70413931       4.11047173       6.88260074
Cu       2.55923411       2.01335906      15.75322698
Cu       2.66092023       1.94944938       8.52618621
Cu       3.65587882       2.45840341      12.09038827
Cu       3.10389354       2.86247606       4.96695649
16
Lattice="4.62996 0.0 0.0 0.0 6.95703 0.0 0.0 0.0 10.09343" Properties=species:S:1:pos:R:3 config_type=buildcell buildcell_config_i=76 RSS_min_vol_per_atom=9.0 buildcell_type=wide gap_rss_group=ALL gap_rss_iter=0 buildcell_symmetry="1 P1 P 1 @ 0.01" _ConfigSet_loc=" / 6" pbc="T T T"
Li       3.48873949       4.45633597       3.63714562
Li       1.34319491       5.94196726       3.54896307
Li       3.59698936       2.56361107       1.42739080
Li       1.24514792       0.94530563       1.42776526
Li       1.21508815       2.29553957       6.34856145
Li       3.38283933       0.89036429       6.55247797
Li       1.10008951       4.32893203       8.76565664
Li       3.41649045       5.97213542       8.47661695
Li       1.03688914       0.01109226       7.45497314
Li       3.57620239      -0.06006387       2.49418813
Li       3.47846193       3.66374282       7.56872278
Li       0.98555632       3.56076949       2.40127314
Cu       2.33586636       5.02180549       0.50167055
Cu       2.33466612       1.81310416       9.47607767
Cu       2.30341517       1.70914713       4.26437364
Cu       2.24299558       5.17170862       5.78691638
12
Lattice="6.20039 0.0 0.0 1.6707475639784062 6.176085351082854 0.0 2.2035229970478465 1.6072546301598492 6.975863184109262" Properties=species:S:1:pos:R:3 config_type=buildcell buildcell_config_i=77 RSS_min_vol_per_atom=9.0 buildcell_type=wide gap_rss_group=ALL gap_rss_iter=0 buildcell_symmetry="1 P1 P 1 @ 0.01" _ConfigSet_loc=" / 7" pbc="T T T"
Li       4.39161072       4.89390505       4.05330304
Li       8.55075627       4.66160921       5.99222471
Li       2.10344686       3.70945275       0.77493341
Li       7.78164130       1.12905769       3.84756453
Li       5.36978697       3.33999778       5.91082366
Li       5.04105537       1.67834135       4.01158718
Li       2.85611264       6.30690597       1.50849892
Li       4.72191376       4.37074733       1.23219366
Li       5.70326455       6.42944922       5.85356149
Cu       3.14988154       2.39836988       5.31085808
Cu       1.78413843       4.94421720       3.05271876
Cu       5.08412893       1.14875775       0.13471460
20
Lattice="4.31665 0.0 0.0 -0.5214086035338715 6.692048049518238 0.0 -0.772801456173477 -2.7283668587906242 14.707493329935225" Properties=species:S:1:pos:R:3 config_type=buildcell buildcell_config_i=78 RSS_min_vol_per_atom=9.0 buildcell_type=wide gap_rss_group=ALL gap_rss_iter=0 buildcell_symmetry="1 P1 P 1 @ 0.01" _ConfigSet_loc=" / 8" pbc="T T T"
Li       1.84662434       3.26099121      10.25491150
Li       2.47070742      -0.55209399      10.17771986
Li       1.56637857       4.86285872       7.86463386
Li       0.23993396       2.72778410      12.68167562
Li       3.48561771       0.99395547       6.19803101
Li       1.57047798       1.20728301       8.37894790
Li      -0.05771235       1.07889377      10.67214132
Li       1.85995583       3.66792060       1.62480847
Li       2.88560091       5.31640499       4.45512477
Li       1.34061090       2.72511731       6.07272988
Li       0.09989490      -1.79053044      10.93281853
Li       1.19732103      -0.25375491       5.68415897
Li      -0.49080868       2.75962028       8.28088387
Li       3.54752309      -1.66142574      13.46757629
Li       1.02525920       1.82044984       3.43503290
Cu      -0.39376116      -0.03275283       2.67437299
Cu       2.22316730       1.21940541      11.82419853
Cu       2.87004534       2.71120906      14.73629712
Cu       2.15516877       0.34799959      13.70028662
Cu       2.65379512       1.43966820       0.99752368
24
Lattice="3.93193 0.0 0.0 0.0 7.64461 0.0 0.0 -0.4712055320128034 13.042050515935005" Properties=species:S:1:pos:R:3 config_type=buildcell buildcell_config_i=79 RSS_min_vol_per_atom=9.0 buildcell_type=wide gap_rss_group=ALL gap_rss_iter=0 buildcell_symmetry="1 P1 P 1 @ 0.01" _ConfigSet_loc=" / 9" pbc="T T T"
Li       1.27599949       6.22078516       1.98119906
Li       3.34459606       0.91537754      11.10220662
Li       3.32030141       3.52491450      12.07489903
Li       1.25067114       3.67889167       0.87363107
Li       0.83145920       7.95570421       3.86013762
Li       2.71699922      -1.07491088       9.04084584
Li       1.26856802       0.31392888      13.19481167
Li       3.30275780       6.72499804      -0.14867110
Li       1.34645924       2.51054656       7.00578197
Li       3.40443231       4.61388630       5.89199981
Li       1.13401625       2.87551484      10.42951925
Li       3.05438081       4.56537194       2.48909717
Li      -0.50768496       1.26506988       1.74187704
Li       1.45707981       5.78621423      11.18449170
Li       2.83839673       2.21823711       4.70598427
Li       0.81201213       4.87899311       8.29392627
Li       3.45780481       0.42529770       6.94761007
Li       1.41896975       6.50411056       6.18801647
Cu       3.09345697       4.39533338       9.69465428
Cu       0.99347078       2.90432544       3.36102899
Cu       2.72531920       6.59038347       3.78322458
Cu       0.68765096       0.64570768       9.28381644
Cu       3.10552160       2.27398980       8.94965782
Cu       1.08224563       5.03590752       4.28235995
