8
Lattice="5.30978 0.0 0.0 -2.1701433304684845 5.062779537894491 0.0 0.0 0.0 5.61507" Properties=species:S:1:pos:R:3 config_type=buildcell buildcell_config_i=60 RSS_min_vol_per_atom=9.0 buildcell_type=narrow gap_rss_group=ALL gap_rss_iter=0 buildcell_symmetry="1 P1 P 1 @ 0.01" _ConfigSet_loc=" / 0" pbc="T T T"
Li       2.62988113       0.46444980       3.57305729
Li       0.71172994       4.56108797       0.67733974
Li       0.05662044       0.92596146       2.62313514
Li       3.29519351       4.16721979      -0.18402540
Li       1.35985812       2.17356616       4.81287282
Li       1.74774602       2.59660224       2.20925434
Cu       4.25981762       1.22937442       5.17804268
Cu      -1.23356099       3.69892757       2.08146799
20
Lattice="6.70365 0.0 0.0 -0.21690725534576805 7.05421599081559 0.0 -1.586472086155684 -3.2120608744201085 7.5404718281927385" Properties=species:S:1:pos:R:3 config_type=buildcell buildcell_config_i=61 RSS_min_vol_per_atom=9.0 buildcell_type=narrow gap_rss_group=ALL gap_rss_iter=0 buildcell_symmetry="1 P1 P 1 @ 0.01" _ConfigSet_loc=" / 1" pbc="T T T"
Li       0.45932780       0.77960078       5.22410596
Li       2.86693831       0.37111357       1.15744380
Li       0.64490381      -1.52962303       6.34805508
Li       0.16518477       3.71525112       4.24578406
Li       3.49527150       0.53659049       3.57853553
Li       4.82255636       2.17887590       5.48476182
Li       2.49497443       3.56207192       5.51798153
Li       4.41535072      -1.16980613       5.26122108
Li       0.26181098       2.88580713       0.34927834
Li       1.94434789       1.74386401       7.13702812
Li       6.10928812       1.60554022       2.70723451
Li       0.35826650       6.17377547       2.21936560
Li       1.92951062       2.42737098       2.49744878
Li       5.18600470       1.00526978       0.20278249
Li       4.42873407       3.43706150       2.89295693
Cu       4.88866416      -1.15308271       3.04179852
Cu       3.60589112       2.58984973       0.80141512
Cu       5.42769385       4.64843533       1.19271647
Cu      -1.05492343       3.67257652       7.39830446
Cu       1.97003157      -1.13456890       4.55214329
20
Lattice="4.68065 0.0 0.0 -0.09028415892994855 7.082774597087381 0.0 -2.295181197619303 -3.5413883772178827 11.387812067464974" Properties=species:S:1:pos:R:3 config_type=buildcell buildcell_config_i=62 RSS_min_vol_per_atom=9.0 buildcell_type=narrow gap_rss_group=ALL gap_rss_iter=0 buildcell_symmetry="1 P1 P 1 @ 0.01" _ConfigSet_loc=" / 2" pbc="T T T"
Li       2.58797049       4.86958516       3.88514863
Li       2.20437090       2.17594695       3.79696608
Li      -0.53290018      -1.99897686      10.26717274
Li       0.74508106       2.02937661      10.26754720
Li       0.80507566       0.90990811       7.62526015
Li      -0.83710630      -1.20252073       7.82917666
Li       3.34213517       0.65166904       6.07771434
Li       1.22513659      -0.78614771       5.78867464
Li      -1.70721758       2.20234038       8.83955406
Li       1.69035182      -2.25131440       8.92548405
Li       1.11001395       0.85842059       1.76363360
Li       3.40469529      -0.59093790       1.64289896
Li       3.96556569       1.61449675       0.09495927
Li       0.66537271       5.34615745       0.24491471
Li       2.28361832       3.51127679       1.33409389
Cu       0.21629049      -1.37662895       3.79179325
Cu      -0.25391196       1.15425965       3.71848943
Cu       0.49018668       2.47709611       5.83345483
Cu      -0.51587690       4.63111321       5.68836545
Cu       2.30940504       0.03312505      10.04619653
20
Lattice="6.02005 0.0 0.0 0.0 8.11453 0.0 0.0 -4.057264999999998 7.027389119770943" Properties=species:S:1:pos:R:3 config_type=buildcell buildcell_config_i=63 RSS_min_vol_per_atom=9.0 buildcell_type=narrow gap_rss_group=ALL gap_rss_iter=0 buildcell_symmetry="1 P1 P 1 @ 0.01" _ConfigSet_loc=" / 3" pbc="T T T"
Li       1.94012243      -0.01113362       7.87673575
Li       2.04275400      -2.73285853       3.10032401
Li       2.04837230       2.78349386       3.07212619
Li       4.18385499       6.71767361       3.86174251
Li       4.15379521       3.86862978      -0.95706956
Li       4.07337023       1.24653870       3.93507614
Li       3.55010818       5.91868968       1.33844169
Li       3.61833296       4.05912719       4.50963148
Li       3.58647232       2.07059284       1.06830665
Li       2.41670921      -2.05782829       5.81481374
Li       2.31896875       2.18788287       5.83416258
Li       2.27336832       0.07736386       2.25319846
Li       0.02088636       5.60903061      -0.13281860
Li       0.01968612      -2.82865216       5.04441224
Li       6.00848517       1.12465582       1.85226151
Cu      -0.07198442      -1.36616524       2.39219485
Cu       0.03436183       2.46389870       0.03240840
Cu       5.98154177       2.66947144       4.80207412
Cu       1.28985950       0.09312801      -0.08392175
Cu       4.80236922       4.09039134       7.12494363
12
Lattice="5.82275 0.0 0.0 -2.9113749999999987 5.042649419885841 0.0 0.0 0.0 7.09649" Properties=species:S:1:pos:R:3 config_type=buildcell buildcell_config_i=64 RSS_min_vol_per_atom=9.0 buildcell_type=narrow gap_rss_group=ALL gap_rss_iter=0 buildcell_symmetry="1 P1 P 1 @ 0.01" _ConfigSet_loc=" / 4" pbc="T T T"
Li       1.95196675       1.62569018       4.74664407
Li       3.60404229       0.80426245      -0.07253205
Li       3.53801164       2.65219850       2.26943135
Li       0.52297137       2.42085262       2.36804181
Li      -0.98488344       3.21180479       6.97311657
Li       0.48413555       4.11368852       4.81153595
Li       1.53537230       2.67538685       0.14656488
Li      -1.30777792       2.23278502       4.58851875
Li       2.51596231       0.01109226       2.25039707
Cu       2.91607771       4.92565807      -0.02916937
Cu       0.00556353       0.18522782       2.36414671
Cu      -0.13863819       0.13918197       4.60890920
20
Lattice="7.54967 0.0 0.0 3.7748337076594694 7.04459870059451 0.0 3.7748337076594694 2.183244680465758 6.697746898594769" Properties=species:S:1:pos:R:3 config_type=buildcell buildcell_config_i=65 RSS_min_vol_per_atom=9.0 buildcell_type=narrow gap_rss_group=ALL gap_rss_iter=0 buildcell_symmetry="1 P1 P 1 @ 0.01" _ConfigSet_loc=" / 5" pbc="T T T"
Li       2.49950173       4.29745151       1.53738505
Li      12.80181009       6.46817776       3.03171734
Li       5.25775900       2.81299376       3.59566843
Li      10.05375571       4.87022367       5.17855773
Li      12.67370333       4.72523741       5.05263892
Li       2.39360156       2.63496717       3.67404060
Li       9.90869729       6.35036273       3.20169591
Li       5.07726008       4.31803076       1.33014138
Li       7.49522975       4.33161811       5.91546287
Li       7.58723919       4.84725366       0.63801530
Li       7.48949873       2.34042638       4.45757615
Li       7.44389693       7.15489931       2.11673666
Li       7.57055446       6.58396298       4.78818549
Li       7.56935544       2.52176004       1.79387963
Li       7.53810388       4.58381132       3.20102125
Cu      12.68429153       7.35756406       5.47940833
Cu       9.92709173       7.22732392       5.40610450
Cu       5.16809928       1.75652325       1.38521842
Cu       2.44616142       1.91734346       1.24012904
Cu      11.29358247       2.21637102       6.79530141
12
Lattice="4.07809 0.0 0.0 0.0 7.99082 0.0 0.0 -3.9954099999999984 6.9202531170687696" Properties=species:S:1:pos:R:3 config_type=buildcell buildcell_config_i=66 RSS_min_vol_per_atom=9.0 buildcell_type=narrow gap_rss_group=ALL gap_rss_iter=0 buildcell_symmetry="1 P1 P 1 @ 0.01" _ConfigSet_loc=" / 6" pbc="T T T"
Li       2.26723154       3.73721071       3.78140151
Li       3.72922631       5.31517439       1.79002964
Li       1.01611821       2.97334660       1.34322968
Li       1.91478588       1.29683796       5.06023681
Li       0.52536290      -1.29013490       5.35758421
Li       3.16366432      -0.34565597       3.23504519
Li      -0.09080241       3.18075287       5.90040864
Li       2.69614917       1.35360633      -0.14247482
Li       1.30492492      -0.66233450       1.05131000
Cu       0.03756980       2.01193099       3.55963099
Cu       2.65855614       4.03205811      -0.00134972
Cu       1.25359210      -1.84116065       3.20936839
16
Lattice="3.62377 0.0 0.0 0.0 9.60834 0.0 0.0 -4.804169999999998 8.321066528198175" Properties=species:S:1:pos:R:3 config_type=buildcell buildcell_config_i=67 RSS_min_vol_per_atom=9.0 buildcell_type=narrow gap_rss_group=ALL gap_rss_iter=0 buildcell_symmetry="1 P1 P 1 @ 0.01" _ConfigSet_loc=" / 7" pbc="T T T"
Li       3.42498415       2.05672328       1.32532306
Li       3.52761572       4.83715177       5.87422708
Li       3.53323401       7.55813665       1.11592411
Li       1.61819976       8.14479594       3.00633147
Li       1.58813998       3.16116593      -0.47161083
Li       1.50771500       2.76759522       5.59870586
Li       1.47262569       5.53156720       4.21464111
Li       1.54085047       5.49758140       1.23176679
Li       1.50898982       3.25997612       2.76364933
Li       3.41315251       1.18003269       6.71432446
Li       3.31541204       0.60104555       3.87401477
Li       3.26981161      -1.57366124       5.90119120
Cu       1.58431409       5.54451602       7.24563501
Cu       1.58311386       8.39770341      -0.32242759
Cu       1.55186290       0.31805984       1.13432513
Cu       1.49207783      -0.04606436       5.65309019
8
Lattice="5.83392 0.0 0.0 2.9169600000000004 5.052322923646112 0.0 2.916960859080396 1.6841081372056683 4.982614020410432" Properties=species:S:1:pos:R:3 config_type=buildcell buildcell_config_i=68 RSS_min_vol_per_atom=9.0 buildcell_type=narrow gap_rss_group=ALL gap_rss_iter=0 buildcell_symmetry="1 P1 P 1 @ 0.01" _ConfigSet_loc=" / 8" pbc="T T T"
Li       3.53247744       3.12451058       2.43817227
Li       6.96269997       5.49586422       2.34998972
Li       7.36647951       1.52377345       2.32645598
Li       4.76117290       1.04028792      -0.17704123
Li       1.52874667       0.24137041      -0.30296004
Li       2.48318384       3.43171165      -0.09904352
Cu       5.74311803       3.22698516       0.97331657
Cu       5.81134292       3.37496842       3.04930750
8
Lattice="3.20161 0.0 0.0 0.0 4.92159 0.0 0.0 -0.8864753573069276 9.063762606169005" Properties=species:S:1:pos:R:3 config_type=buildcell buildcell_config_i=69 RSS_min_vol_per_atom=9.0 buildcell_type=narrow gap_rss_group=ALL gap_rss_iter=0 buildcell_symmetry="1 P1 P 1 @ 0.01" _ConfigSet_loc=" / 9" pbc="T T T"
Li       1.87739661       2.96628388       6.71963080
Li       0.37922318       1.03158899       2.38548696
Li       3.57794576       0.46960427       6.64674367
Li       1.87347548       3.59591207       2.32349853
Li       1.85001486       0.73534012       4.40828671
Li       0.16878488       3.00716338       4.51440885
Cu       1.72641350      -0.39387721       8.65056854
Cu       3.39544328       4.29451430       0.41728413
