8
Lattice="3.6246 0.0 0.0 0.6570513311789501 5.447427364939892 0.0 1.4821662177984958 0.619746974380225 8.785584908141487" Properties=species:S:1:pos:R:3 config_type=buildcell buildcell_config_i=30 RSS_min_vol_per_atom=10.0 buildcell_type=wide_even gap_rss_group=ALL gap_rss_iter=2 buildcell_symmetry="1 P1 P 1 @ 0.01" _ConfigSet_loc=" / 0" pbc="T T T"
Li       2.14238526       2.75485106       9.02110272
Li       0.66296842       4.65411885       2.68120149
Li       0.97968131       1.84583932       2.90089383
Li       3.01918720       2.51556836       5.64149818
Li       4.83149390       4.09453088       6.87130963
Li       3.95469011       1.17608952       7.79105143
Li       2.47251449       4.06492349       0.76590445
Li       2.72005260       5.46783743       5.07108705
8
Lattice="6.34787 0.0 0.0 -2.33379445603322 5.903292045451302 0.0 -2.33379445603322 -2.729460896497751 5.2343958761616705" Properties=species:S:1:pos:R:3 config_type=buildcell buildcell_config_i=31 RSS_min_vol_per_atom=10.0 buildcell_type=wide_even gap_rss_group=ALL gap_rss_iter=2 buildcell_symmetry="15 C2/c -C 2yc @ 0.01" _ConfigSet_loc=" / 1" pbc="T T T"
Li      -0.39037462       1.84646645       1.28783046
Li      -2.80691983       3.48965025       3.94656542
Li      -1.61285340       0.51952993       3.87746773
Li       2.75639118       1.86494075       1.35692815
Li       1.06713683       4.16791816       1.32936748
Li       1.14988758      -0.20472654       3.90502839
Li      -0.04417885       2.76539378       3.97412608
Li      -2.07962897       4.14944385       1.26026979
4
Lattice="2.83335 0.0 0.0 -0.4746755219032334 3.6347360989356425 0.0 0.0 0.0 7.05168" Properties=species:S:1:pos:R:3 config_type=buildcell buildcell_config_i=32 RSS_min_vol_per_atom=10.0 buildcell_type=wide_even gap_rss_group=ALL gap_rss_iter=2 buildcell_symmetry="14 P2_1/c -P 2ybc @ 0.01" _ConfigSet_loc=" / 2" pbc="T T T"
Li       0.12330832       1.05655163       2.54400216
Li      -0.11402944       2.87391968       4.50767784
Li       1.31285117       1.20314199       6.06984216
Li       1.07551341       3.02051004       0.98183784
6
Lattice="4.4316 0.0 0.0 -1.2812574143701034 4.548361857033985 0.0 -1.3321619447686055 -1.1733184311516132 6.006056116964796" Properties=species:S:1:pos:R:3 config_type=buildcell buildcell_config_i=33 RSS_min_vol_per_atom=10.0 buildcell_type=wide_even gap_rss_group=ALL gap_rss_iter=2 buildcell_symmetry="1 P1 P 1 @ 0.01" _ConfigSet_loc=" / 3" pbc="T T T"
Li       1.34372064       1.98352248       5.35171072
Li       0.46105524       4.04704618       0.60740747
Li       1.33933016      -0.47766263       4.21999377
Li       0.99226690       2.19301417       2.51956457
Li      -0.87626430       1.06128916       4.10748412
Li      -0.46830526       1.04810951       0.55848514
4
Lattice="4.65511 0.0 0.0 2.3275575547664245 4.279313806178479 0.0 2.3275575547664245 1.080933023617096 4.140544704529072" Properties=species:S:1:pos:R:3 config_type=buildcell buildcell_config_i=34 RSS_min_vol_per_atom=10.0 buildcell_type=wide_even gap_rss_group=ALL gap_rss_iter=2 buildcell_symmetry="72 Ibam -I 2 2c @ 0.01" _ConfigSet_loc=" / 4" pbc="T T T"
Li       3.22452284       0.70026052       0.74404926
Li       6.08570227       4.46344325       3.65093523
Li       3.75814670       3.38038394       2.81432161
Li       5.55207841       1.78331984       1.58066288
8
Lattice="5.12506 0.0 0.0 0.5178127968208366 5.098834171754224 0.0 0.5178127968208366 0.46788961546133134 5.077321067136885" Properties=species:S:1:pos:R:3 config_type=buildcell buildcell_config_i=35 RSS_min_vol_per_atom=10.0 buildcell_type=wide_even gap_rss_group=ALL gap_rss_iter=2 buildcell_symmetry="146 R3 R 3 @ 0.01" _ConfigSet_loc=" / 5" pbc="T T T"
Li       2.11795128       3.33289612       0.87850855
Li       3.52982929       1.03725848       1.68228758
Li       1.38858857       1.98782665       3.23821840
Li       4.75304483       3.53886236       1.90228688
Li       4.00097945       2.29537712       4.17816762
Li       2.68787207       4.50452488       3.34936959
Li       5.29328139       4.78294745       4.36245102
Li       0.94800938       0.85661024       0.78130070
8
Lattice="4.85111 0.0 0.0 1.7500682728422183 5.008350550479774 0.0 1.6154580173326873 1.2439142029213652 7.935613213388494" Properties=species:S:1:pos:R:3 config_type=buildcell buildcell_config_i=36 RSS_min_vol_per_atom=10.0 buildcell_type=wide_even gap_rss_group=ALL gap_rss_iter=2 buildcell_symmetry="2 P-1 -P 1 @ 0.01" _ConfigSet_loc=" / 6" pbc="T T T"
Li       1.47668365       2.60666669       1.21550661
Li       6.73995264       3.64559806       6.72010661
Li       4.26302630       2.25841210       5.56165468
Li       3.95360999       3.99385265       2.37395853
Li       4.50857972       4.90093705       5.06299821
Li       3.70805657       1.35132771       2.87261501
Li       4.82707459       5.33456758       7.70920461
Li       3.38956170       0.91769717       0.22640860
6
Lattice="5.027 0.0 0.0 -0.19037423168136638 5.023393937559718 0.0 -0.19037423168136638 -0.19772560605370434 5.019501094393987" Properties=species:S:1:pos:R:3 config_type=buildcell buildcell_config_i=37 RSS_min_vol_per_atom=10.0 buildcell_type=wide_even gap_rss_group=ALL gap_rss_iter=2 buildcell_symmetry="146 R3 R 3 @ 0.01" _ConfigSet_loc=" / 7" pbc="T T T"
Li       4.85593602       0.85210269       2.13085250
Li       1.91026236       4.93181610       0.93531476
Li       0.66759547       1.93693387       4.96480911
Li       1.19675722       4.06633106       3.39136668
Li       3.18104621       1.31817012       4.19666733
Li       4.01809251       3.33560552       1.48233346
4
Lattice="2.77635 0.0 0.0 -1.0138911046012888 5.285697179333146 0.0 -0.8812294333074603 -2.642848183440781 5.01290759595231" Properties=species:S:1:pos:R:3 config_type=buildcell buildcell_config_i=38 RSS_min_vol_per_atom=10.0 buildcell_type=wide_even gap_rss_group=ALL gap_rss_iter=2 buildcell_symmetry="5 C2 C 2y @ 0.01" _ConfigSet_loc=" / 8" pbc="T T T"
Li       0.66486721       1.17494066       2.65579684
Li      -0.66486692      -1.17494023       2.65579684
Li      -0.77586400       1.31990215       4.99784531
Li       0.77586403      -1.31990134       4.99784531
8
Lattice="4.14738 0.0 0.0 2.0736926220801193 4.615067183869643 0.0 2.073690224257806 1.4202550241422194 9.29853385958326" Properties=species:S:1:pos:R:3 config_type=buildcell buildcell_config_i=39 RSS_min_vol_per_atom=10.0 buildcell_type=wide_even gap_rss_group=ALL gap_rss_iter=2 buildcell_symmetry="9 Cc C -2yc @ 0.01" _ConfigSet_loc=" / 9" pbc="T T T"
Li       5.16365042       3.14220922       6.06417090
Li       3.13111359       4.73961530       1.41490397
Li       3.13110757       1.83773834       1.64898898
Li       7.23734574       4.85539945       6.29825591
Li       6.03004661       4.53902732       8.71797432
Li       4.33840644       1.52136622       4.06870739
Li       2.50311105       3.47012161       3.71644824
Li       5.79165123       1.87271553       8.36571517
